STAAD SPACE
START JOB INFORMATION
*****************************************************************************************************
ENGINEER DATE 27/11/2024
JOB NAME NLBC PUMPSTATION
JOB CLIENT VA Beach
ENGINEER NAME SD
CHECKER NAME SM
CHECKER DATE 27/11/2024
END JOB INFORMATION
*****************************************************************************************************
INPUT WIDTH 79
UNIT FEET KIP
JOINT COORDINATES
1 0 0 -0.25; 2 0 0.75 -0.25; 3 1 0.75 -0.25; 4 1 0 -0.25; 5 2 0 -0.25;
6 2 0.75 -0.25; 7 3 0 -0.25; 8 3 0.75 -0.25; 9 4 0 -0.25; 10 4 0.75 -0.25;
11 5 0 -0.25; 12 5 0.75 -0.25; 13 6 0 -0.25; 14 6 0.75 -0.25; 15 7 0 -0.25;
16 7 0.75 -0.25; 17 8 0 -0.25; 18 8 0.75 -0.25; 19 9 0 -0.25; 21 10 0 -0.25;
22 10 0.75 -0.25; 23 11 0 -0.25; 24 11 0.75 -0.25; 25 12 0 -0.25;
26 12 0.75 -0.25; 27 13 0 -0.25; 28 13 0.75 -0.25; 29 14 0 -0.25;
31 15 0 -0.25; 32 15 0.75 -0.25; 33 0 0 11.25; 34 1 0 11.25; 35 1 0.75 11.25;
36 0 0.75 11.25; 37 2 0 11.25; 38 2 0.75 11.25; 39 3 0 11.25; 40 3 0.75 11.25;
41 4 0 11.25; 42 4 0.75 11.25; 43 5 0 11.25; 44 5 0.75 11.25; 45 6 0 11.25;
46 6 0.75 11.25; 47 7 0 11.25; 48 7 0.75 11.25; 49 8 0 11.25; 50 8 0.75 11.25;
51 9 0 11.25; 53 10 0 11.25; 54 10 0.75 11.25; 55 11 0 11.25; 56 11 0.75 11.25;
57 12 0 11.25; 58 12 0.75 11.25; 59 13 0 11.25; 60 13 0.75 11.25;
61 14 0 11.25; 63 15 0 11.25; 64 15 0.75 11.25; 65 0 1.75 -0.25;
66 1 1.75 -0.25; 67 2 1.75 -0.25; 68 3 1.75 -0.25; 69 4 1.75 -0.25;
70 5 1.75 -0.25; 71 6 1.75 -0.25; 72 7 1.75 -0.25; 73 8 1.75 -0.25;
75 10 1.75 -0.25; 76 11 1.75 -0.25; 77 12 1.75 -0.25; 78 13 1.75 -0.25;
80 15 1.75 -0.25; 81 1 1.75 11.25; 82 0 1.75 11.25; 83 2 1.75 11.25;
84 3 1.75 11.25; 85 4 1.75 11.25; 86 5 1.75 11.25; 87 6 1.75 11.25;
88 7 1.75 11.25; 89 8 1.75 11.25; 91 10 1.75 11.25; 92 11 1.75 11.25;
93 12 1.75 11.25; 94 13 1.75 11.25; 96 15 1.75 11.25; 97 0 2.75 -0.25;
# ... 192 like lines cut
*938 -9.8995 0 19.4853;
MEMBER INCIDENCES
1127 885 896; 1595 905 916; 3490 274 1759; 3491 1759 1779; 3492 1779 1799;
3493 1799 1819; 3494 1819 1839; 3495 1839 1859; 3496 1859 1879; 3497 1879 1899;
3498 1899 1919; 3499 1919 1939; 3500 1939 1959; 3501 1959 1979; 3502 1979 1999;
3503 1999 2019;
ELEMENT INCIDENCES SHELL
1 1 4 3 2; 2 4 5 6 3; 3 5 7 8 6; 4 7 9 10 8; 5 9 11 12 10; 6 11 13 14 12;
7 13 15 16 14; 8 15 17 18 16; 11 21 23 24 22; 12 23 25 26 24; 13 25 27 28 26;
32 2 3 66 65; 33 3 6 67 66; 34 6 8 68 67; 35 8 10 69 68; 36 10 12 70 69;
37 12 14 71 70; 38 14 16 72 71; 39 16 18 73 72; 42 22 24 76 75; 43 24 26 77 76;
44 26 28 78 77; 62 65 66 98 97; 63 66 67 99 98; 64 67 68 100 99;
65 68 69 101 100; 66 69 70 102 101; 67 70 71 103 102; 68 71 72 104 103;
69 72 73 105 104; 72 75 76 108 107; 73 76 77 109 108; 74 77 78 110 109;
92 97 98 130 129; 93 98 99 131 130; 94 99 100 132 131; 95 100 101 133 132;
96 101 102 134 133; 97 102 103 135 134; 98 103 104 136 135; 99 104 105 137 136;
102 107 108 140 139; 103 108 109 141 140; 104 109 110 142 141;
122 129 130 162 161; 123 130 131 163 162; 124 131 132 164 163;
125 132 133 165 164; 126 133 134 166 165; 127 134 135 167 166;
128 135 136 168 167; 129 136 137 169 168; 132 139 140 172 171;
133 140 141 173 172; 134 141 142 174 173; 152 161 162 194 193;
153 162 163 195 194; 154 163 164 196 195; 155 164 165 197 196;
156 165 166 198 197; 157 166 167 199 198; 158 167 168 200 199;
159 168 169 201 200; 162 171 172 204 203; 163 172 173 205 204;
164 173 174 206 205; 211 225 226 258 257; 213 226 227 259 258;
214 227 228 260 259; 215 228 229 261 260; 216 229 230 262 261;
217 230 231 263 262; 218 231 232 264 263; 219 232 233 265 264;
# ... 210 like lines cut
*****************************************************************************************************
START GROUP DEFINITION
MEMBER
ELEMENT
_BASESLAB 412 TO 420 422 TO 425 427 TO 435 437 TO 440 442 TO 450 452 TO 455 -
457 TO 465 467 TO 470 472 TO 480 482 TO 485 487 TO 495 497 TO 500 -
502 TO 510 512 TO 515 517 TO 525 527 TO 530 532 TO 540 542 TO 545 -
1600 TO 1604 1607 TO 1610 1616 TO 1621 1624 TO 1627 1946 TO 1954 -
1957 TO 1960 1964 TO 1972 1975 TO 1978 1981 TO 1989 1992 TO 2005 -
2008 TO 2011 2364 TO 2372 2374 TO 2392 2760 TO 2762 2765 2766 3153 TO 3162 -
3164 TO 3203 3205 3207 3209 3211 3213 3215 3217 3219 3221 3223 TO 3234 3236 -
3238 TO 3270 3504 3505
_WALL 32 TO 39 42 TO 44 62 TO 69 72 TO 74 92 TO 99 102 TO 104 122 TO 129 132 -
133 TO 134 152 TO 159 162 TO 164 211 213 TO 219 222 TO 224 801 TO 816 821 -
822 TO 826 908 TO 915 917 TO 924 926 TO 933 953 TO 960 962 TO 969 971 TO 978 -
980 TO 987 989 TO 996 998 TO 1005 1007 TO 1014 1016 TO 1018 1021 TO 1023 -
1028 1029 1125 2691 TO 2705 2708 TO 2723 2726 TO 2741 2743 TO 2758 -
2778 TO 2785 2796 TO 2803 2814 TO 2821 2832 TO 2839 2850 TO 2857 -
2868 TO 2875 2886 TO 2893 2904 TO 2911 2922 TO 2929 2940 TO 2947 -
2958 TO 2965 2976 TO 2983 2994 TO 3001 3012 TO 3019
_CULVERTWALL_MO 33 TO 39 42 TO 44 63 TO 69 72 TO 74 93 TO 99 102 TO 104 123 -
124 TO 129 132 TO 134 153 TO 159 162 TO 164 213 TO 219 222 TO 224 803 TO 816 -
821 TO 826 908 TO 915 917 TO 924 926 TO 933 953 TO 960 962 TO 969 -
971 TO 978 980 TO 987 989 TO 996 998 TO 1005 1007 TO 1014 1125 2691 TO 2705 -
2708 TO 2723 2726 TO 2741 2743 TO 2758
_WINGWALL_MO 2796 TO 2803 2814 TO 2821 2832 TO 2839 2850 TO 2857 -
2868 TO 2875 2886 TO 2893 2904 TO 2911 2922 TO 2929 2940 TO 2947 -
2958 TO 2965 2976 TO 2983 2994 TO 3001 3012 TO 3019
JOINT
END GROUP DEFINITION
*****************************************************************************************************
ELEMENT PROPERTY
1 TO 8 11 TO 13 32 TO 39 42 TO 44 62 TO 69 72 TO 74 92 TO 99 102 TO 104 122 -
123 TO 129 132 TO 134 152 TO 159 162 TO 164 211 213 TO 219 222 TO 224 801 -
802 TO 816 821 TO 826 907 TO 933 952 TO 1018 1021 TO 1023 1028 1029 1125 -
2689 TO 2759 THICKNESS 1.5
412 TO 420 422 TO 425 427 TO 435 437 TO 440 442 TO 450 452 TO 455 457 TO 465 -
467 TO 470 472 TO 480 482 TO 485 487 TO 495 497 TO 500 502 TO 510 -
512 TO 515 517 TO 525 527 TO 530 532 TO 540 542 TO 545 1600 TO 1604 1607 -
1608 TO 1610 1616 TO 1621 1624 TO 1627 1946 TO 1954 1957 TO 1960 -
1964 TO 1972 1975 TO 1978 1981 TO 1989 1992 TO 2005 2008 TO 2011 -
2364 TO 2372 2374 TO 2392 2760 TO 2762 2765 2766 3153 TO 3162 3164 TO 3203 -
3205 3207 3209 3211 3213 3215 3217 3219 3221 3223 TO 3234 3236 3238 TO 3270 -
3504 3505 THICKNESS 1.5
2777 TO 2785 2795 TO 2803 2813 TO 2821 2831 TO 2839 2849 TO 2857 -
2867 TO 2875 2885 TO 2893 2903 TO 2911 2921 TO 2929 2939 TO 2947 -
2957 TO 2965 2975 TO 2983 2993 TO 3001 3011 TO 3019 THICKNESS 1
DEFINE MATERIAL START
ISOTROPIC STEEL
E 4.176e+06
POISSON 0.3
DENSITY 0.489024
ALPHA 6e-06
DAMP 0.03
TYPE STEEL
STRENGTH FY 5184 FU 8352 RY 1.5 RT 1.2
*****************************************************************************************************
ISOTROPIC CONCRETE
E 453600
POISSON 0.17
DENSITY 0.150336
ALPHA 5e-06
DAMP 0.05
TYPE CONCRETE
STRENGTH FCU 576
*****************************************************************************************************
*ISOTROPIC DUMMY
*E 0
*POISSON 0
*DENSITY 0
*ALPHA 0
*DAMP 0
*STRENGTH RY 1 RT 1 FCU 0
ISOTROPIC CONCRETE_5000
E 580393
POISSON 0.17
DENSITY 0.150336
ALPHA 5e-06
DAMP 0.05
G 193846
TYPE CONCRETE
STRENGTH FCU 720
END DEFINE MATERIAL
MEMBER PROPERTY
1127 PRIS YD 1.5 ZD 1.5
1595 PRIS YD 1.5 ZD 1.5
3490 TO 3503 PRIS YD 1 ZD 1
CONSTANTS
MATERIAL CONCRETE_5000 MEMB 1 TO 8 11 TO 13 32 TO 39 42 TO 44 62 TO 69 72 -
73 TO 74 92 TO 99 102 TO 104 122 TO 129 132 TO 134 152 TO 159 162 TO 164 211 -
213 TO 219 222 TO 224 412 TO 420 422 TO 425 427 TO 435 437 TO 440 -
442 TO 450 452 TO 455 457 TO 465 467 TO 470 472 TO 480 482 TO 485 -
487 TO 495 497 TO 500 502 TO 510 512 TO 515 517 TO 525 527 TO 530 -
532 TO 540 542 TO 545 801 TO 816 821 TO 826 907 TO 933 952 TO 1018 -
1021 TO 1023 1028 1029 1125 1127 1595 1600 TO 1604 1607 TO 1610 -
1616 TO 1621 1624 TO 1627 1946 TO 1954 1957 TO 1960 1964 TO 1972 -
1975 TO 1978 1981 TO 1989 1992 TO 2005 2008 TO 2011 2364 TO 2372 -
2374 TO 2392 2689 TO 2762 2765 2766 2777 TO 2785 2795 TO 2803 2813 TO 2821 -
2831 TO 2839 2849 TO 2857 2867 TO 2875 2885 TO 2893 2903 TO 2911 -
2921 TO 2929 2939 TO 2947 2957 TO 2965 2975 TO 2983 2993 TO 3001 -
3011 TO 3019 3153 TO 3162 3164 TO 3203 3205 3207 3209 3211 3213 3215 3217 -
3219 3221 3223 TO 3234 3236 3238 TO 3270 3504 3505
MATERIAL CONCRETE MEMB 3490 TO 3503
MEMBER RELEASE
1127 1595 START MY MZ
1127 1595 END MY MZ
MEMBER OFFSET
1127 1595 START 0 -0.75 0
1127 1595 END 0 -0.75 0
SUPPORTS
412 TO 420 422 TO 425 427 TO 435 437 TO 440 442 TO 450 452 TO 455 457 TO 465 -
467 TO 470 472 TO 480 482 TO 485 487 TO 495 497 TO 500 502 TO 510 -
512 TO 515 517 TO 525 527 TO 530 532 TO 540 542 TO 545 1600 TO 1604 1607 -
1608 TO 1610 1616 TO 1621 1624 TO 1627 1946 TO 1954 1957 TO 1960 -
1964 TO 1972 1975 TO 1978 1981 TO 1989 1992 TO 2005 2008 TO 2011 -
2364 TO 2372 2374 TO 2392 2760 TO 2762 2765 2766 3153 TO 3162 3164 TO 3203 -
3205 3207 3209 3211 3213 3215 3217 3219 3221 3223 TO 3234 3236 3238 TO 3270 -
3504 3505 PLATE MAT DIRECT Y SUBGRADE 24 PRINT
LOAD 1 LOADTYPE Dead  TITLE DEAD LOAD (DL)
SELFWEIGHT Y -1 
MEMBER LOAD
1127 1595 UNI GY -0.004
JOINT LOAD
265 281 FY -2.5
LOAD 2 LOADTYPE Live  TITLE LIVE LOAD (LL)
MEMBER LOAD
1127 1595 UNI GY -0.81
LOAD 3 LOADTYPE Soil  TITLE SOIL LOAD (LATERAL) (HL_U)
ELEMENT LOAD
213 TRAP JT 0.06 0.06 0 0
214 TRAP JT 0.06 0.06 0 0
215 TRAP JT 0.06 0.06 0 0
216 TRAP JT 0.06 0.06 0 0
217 TRAP JT 0.06 0.06 0 0
218 TRAP JT 0.06 0.06 0 0
219 TRAP JT 0.06 0.06 0 0
222 TRAP JT 0.06 0.06 0 0
223 TRAP JT 0.06 0.06 0 0
224 TRAP JT 0.06 0.06 0 0
802 TRAP JT 0.09 0.09 0.06 0.06
804 TRAP JT 0.09 0.09 0.06 0.06
806 TRAP JT 0.09 0.09 0.06 0.06
808 TRAP JT 0.09 0.09 0.06 0.06
810 TRAP JT 0.09 0.09 0.06 0.06
812 TRAP JT 0.09 0.09 0.06 0.06
814 TRAP JT 0.09 0.09 0.06 0.06
816 TRAP JT 0.09 0.09 0.06 0.06
822 TRAP JT 0.09 0.09 0.06 0.06
824 TRAP JT 0.09 0.09 0.06 0.06
# ... 332 like lines cut
32 TO 39 42 TO 44 62 TO 69 72 TO 74 92 TO 99 102 TO 104 122 TO 129 -
132 TO 134 152 TO 159 162 TO 164 211 213 TO 219 222 TO 224 801 TO 816 821 -
822 TO 826 908 TO 915 917 TO 924 926 TO 933 953 TO 960 962 TO 969 971 TO 978 -
980 TO 987 989 TO 996 998 TO 1005 1007 TO 1014 1016 TO 1018 1021 TO 1023 -
1028 1029 1125 2691 TO 2705 2708 TO 2723 2726 TO 2741 2743 TO 2758 -
2778 TO 2785 2796 TO 2803 2814 TO 2821 2832 TO 2839 2850 TO 2857 -
2868 TO 2875 2886 TO 2893 2904 TO 2911 2922 TO 2929 2940 TO 2947 -
2958 TO 2965 2976 TO 2983 2994 TO 3001 3012 TO 3019 PR 0.12
LOAD 4 LOADTYPE Soil  TITLE SOIL LOAD (VERTICAL) (HV_U)
ELEMENT LOAD
3153 TO 3162 3164 TO 3203 3224 TO 3234 3254 3255 PR -0.81
LOAD 5 LOADTYPE Soil  TITLE SOIL LOAD (LATERAL) (HL_N)
ELEMENT LOAD
33 TRAP JT 0.56 0.56 0.497333 0.497333
34 TRAP JT 0.56 0.56 0.497333 0.497333
35 TRAP JT 0.56 0.56 0.497333 0.497333
36 TRAP JT 0.56 0.56 0.497333 0.497333
37 TRAP JT 0.56 0.56 0.497333 0.497333
38 TRAP JT 0.56 0.56 0.497333 0.497333
39 TRAP JT 0.56 0.56 0.497333 0.497333
42 TRAP JT 0.56 0.56 0.497333 0.497333
43 TRAP JT 0.56 0.56 0.497333 0.497333
44 TRAP JT 0.56 0.56 0.497333 0.497333
62 TRAP JT 0.497333 0.497333 0.434667 0.434667
63 TRAP JT 0.497333 0.497333 0.434667 0.434667
64 TRAP JT 0.497333 0.497333 0.434667 0.434667
65 TRAP JT 0.497333 0.497333 0.434667 0.434667
66 TRAP JT 0.497333 0.497333 0.434667 0.434667
67 TRAP JT 0.497333 0.497333 0.434667 0.434667
68 TRAP JT 0.497333 0.497333 0.434667 0.434667
69 TRAP JT 0.497333 0.497333 0.434667 0.434667
72 TRAP JT 0.497333 0.497333 0.434667 0.434667
73 TRAP JT 0.497333 0.497333 0.434667 0.434667
# ... 684 like lines cut
32 TO 39 42 TO 44 62 TO 69 72 TO 74 92 TO 99 102 TO 104 122 TO 129 -
132 TO 134 152 TO 159 162 TO 164 211 213 TO 219 222 TO 224 801 TO 816 821 -
822 TO 826 908 TO 915 917 TO 924 926 TO 933 953 TO 960 962 TO 969 971 TO 978 -
980 TO 987 989 TO 996 998 TO 1005 1007 TO 1014 1016 TO 1018 1021 TO 1023 -
1028 1029 1125 2691 TO 2705 2708 TO 2723 2726 TO 2741 2743 TO 2758 -
2778 TO 2785 2796 TO 2803 2814 TO 2821 2832 TO 2839 2850 TO 2857 -
2868 TO 2875 2886 TO 2893 2904 TO 2911 2922 TO 2929 2940 TO 2947 -
2958 TO 2965 2976 TO 2983 2994 TO 3001 3012 TO 3019 PR 0.12
LOAD 6 LOADTYPE Soil  TITLE SOIL LOAD (VERTICAL) (HV_N)
ELEMENT LOAD
3153 TO 3162 3164 TO 3203 3224 TO 3234 3254 3255 PR GY -1.01
LOAD 7 LOADTYPE None  TITLE UPLIFT (U_U)
ELEMENT LOAD
412 TO 420 422 TO 425 427 TO 435 437 TO 440 442 TO 450 452 TO 455 457 TO 465 -
467 TO 470 472 TO 480 482 TO 485 487 TO 495 497 TO 500 502 TO 510 -
512 TO 515 517 TO 525 527 TO 530 532 TO 540 542 TO 545 1600 TO 1604 1607 -
1608 TO 1610 1616 TO 1621 1624 TO 1627 1946 TO 1954 1957 TO 1960 -
1964 TO 1972 1975 TO 1978 1981 TO 1989 1992 TO 2005 2008 TO 2011 -
2364 TO 2372 2374 TO 2392 2760 TO 2762 2765 2766 3153 TO 3162 3164 TO 3203 -
3205 3207 3209 3211 3213 3215 3217 3219 3221 3223 TO 3234 3236 3238 TO 3270 -
3504 3505 PR GY 0.47
LOAD 8 LOADTYPE None  TITLE UPLIFT (U_N)
ELEMENT LOAD
412 TO 420 422 TO 425 427 TO 435 437 TO 440 442 TO 450 452 TO 455 457 TO 465 -
467 TO 470 472 TO 480 482 TO 485 487 TO 495 497 TO 500 502 TO 510 -
512 TO 515 517 TO 525 527 TO 530 532 TO 540 542 TO 545 1600 TO 1604 1607 -
1608 TO 1610 1616 TO 1621 1624 TO 1627 1946 TO 1954 1957 TO 1960 -
1964 TO 1972 1975 TO 1978 1981 TO 1989 1992 TO 2005 2008 TO 2011 -
2364 TO 2372 2374 TO 2392 2760 TO 2762 2765 2766 3153 TO 3162 3164 TO 3203 -
3205 3207 3209 3211 3213 3215 3217 3219 3221 3223 TO 3234 3236 3238 TO 3270 -
3504 3505 PR GY 0.67
LOAD 9 LOADTYPE None  TITLE ICE (DI)
MEMBER LOAD
3490 TO 3503 UNI Z -5.5
LOAD 10 LOADTYPE None  TITLE SNOW (S)
MEMBER LOAD
1127 1595 UNI GY -0.16
LOAD 11 LOADTYPE Flood  TITLE HYDROSTATIC USUAL (HS_U)
ELEMENT LOAD
33 TRAP JT -0.37 -0.37 -0.308333 -0.308333
34 TRAP JT -0.37 -0.37 -0.308333 -0.308333
35 TRAP JT -0.37 -0.37 -0.308333 -0.308333
36 TRAP JT -0.37 -0.37 -0.308333 -0.308333
37 TRAP JT -0.37 -0.37 -0.308333 -0.308333
38 TRAP JT -0.37 -0.37 -0.308333 -0.308333
39 TRAP JT -0.37 -0.37 -0.308333 -0.308333
42 TRAP JT -0.37 -0.37 -0.308333 -0.308333
43 TRAP JT -0.37 -0.37 -0.308333 -0.308333
44 TRAP JT -0.37 -0.37 -0.308333 -0.308333
62 TRAP JT -0.308333 -0.308333 -0.246667 -0.246667
63 TRAP JT -0.308333 -0.308333 -0.246667 -0.246667
64 TRAP JT -0.308333 -0.308333 -0.246667 -0.246667
65 TRAP JT -0.308333 -0.308333 -0.246667 -0.246667
66 TRAP JT -0.308333 -0.308333 -0.246667 -0.246667
67 TRAP JT -0.308333 -0.308333 -0.246667 -0.246667
68 TRAP JT -0.308333 -0.308333 -0.246667 -0.246667
69 TRAP JT -0.308333 -0.308333 -0.246667 -0.246667
72 TRAP JT -0.308333 -0.308333 -0.246667 -0.246667
73 TRAP JT -0.308333 -0.308333 -0.246667 -0.246667
# ... 244 like lines cut
412 TO 420 422 TO 425 427 TO 435 437 TO 440 442 TO 450 452 TO 455 457 TO 465 -
467 TO 470 472 TO 480 482 TO 485 487 TO 495 497 TO 500 502 TO 510 -
512 TO 515 517 TO 525 527 TO 530 532 TO 540 542 TO 545 1981 TO 1989 1992 -
1993 TO 2005 2008 TO 2011 2364 TO 2372 2377 TO 2386 2391 2392 3205 3207 3209 -
3211 3213 3215 3217 3219 3221 3223 3236 3238 3239 3269 PR GY -0.37
LOAD 12 LOADTYPE Flood  TITLE HYDROSTATIC UNUSUAL(HS_N)
ELEMENT LOAD
33 TRAP JT -0.56 -0.56 -0.497333 -0.497333
34 TRAP JT -0.56 -0.56 -0.497333 -0.497333
35 TRAP JT -0.56 -0.56 -0.497333 -0.497333
36 TRAP JT -0.56 -0.56 -0.497333 -0.497333
37 TRAP JT -0.56 -0.56 -0.497333 -0.497333
38 TRAP JT -0.56 -0.56 -0.497333 -0.497333
39 TRAP JT -0.56 -0.56 -0.497333 -0.497333
42 TRAP JT -0.56 -0.56 -0.497333 -0.497333
43 TRAP JT -0.56 -0.56 -0.497333 -0.497333
44 TRAP JT -0.56 -0.56 -0.497333 -0.497333
62 TRAP JT -0.497333 -0.497333 -0.434667 -0.434667
63 TRAP JT -0.497333 -0.497333 -0.434667 -0.434667
64 TRAP JT -0.497333 -0.497333 -0.434667 -0.434667
65 TRAP JT -0.497333 -0.497333 -0.434667 -0.434667
66 TRAP JT -0.497333 -0.497333 -0.434667 -0.434667
67 TRAP JT -0.497333 -0.497333 -0.434667 -0.434667
68 TRAP JT -0.497333 -0.497333 -0.434667 -0.434667
69 TRAP JT -0.497333 -0.497333 -0.434667 -0.434667
72 TRAP JT -0.497333 -0.497333 -0.434667 -0.434667
73 TRAP JT -0.497333 -0.497333 -0.434667 -0.434667
# ... 332 like lines cut
412 TO 420 422 TO 425 427 TO 435 437 TO 440 442 TO 450 452 TO 455 457 TO 465 -
467 TO 470 472 TO 480 482 TO 485 487 TO 495 497 TO 500 502 TO 510 -
512 TO 515 517 TO 525 527 TO 530 532 TO 540 542 TO 545 1981 TO 1989 1992 -
1993 TO 2005 2008 TO 2011 2364 TO 2372 2377 TO 2386 2391 2392 3205 3207 3209 -
3211 3213 3215 3217 3219 3221 3223 3236 3238 3239 3269 PR GY -0.57
LOAD 13 LOADTYPE Flood  TITLE HYDRODYNAMIC USUAL(HD_U)
ELEMENT LOAD
2778 TO 2782 2784 2785 2796 TO 2800 2802 2803 2814 TO 2818 2820 2821 2832 -
2833 TO 2836 2838 2839 2850 TO 2854 2856 2857 2868 TO 2872 2874 2875 2886 -
2887 TO 2890 2892 2893 2904 TO 2908 2910 2911 2922 TO 2926 2928 2929 2940 -
2941 TO 2944 2946 2947 2958 TO 2962 2964 2965 2976 TO 2980 2982 2983 2994 -
2995 TO 2998 3000 3001 3012 TO 3016 3018 3019 PR -0.019
LOAD 14 LOADTYPE Flood  TITLE HYDRODYNAMIC UNUSUAL(HD_N)
ELEMENT LOAD
2778 TO 2785 2796 TO 2803 2814 TO 2821 2832 TO 2839 2850 TO 2857 -
2868 TO 2875 2886 TO 2893 2904 TO 2911 2922 TO 2929 2940 TO 2947 -
2958 TO 2965 2976 TO 2983 2994 TO 3001 3012 TO 3019 PR -0.026
LOAD 15 LOADTYPE Flood  TITLE DEBRIS IMPACT(DB)
MEMBER LOAD
3490 TO 3503 UNI Z -0.5
LOAD 16 LOADTYPE None  TITLE FLOOD LOADS(FA_U)
REPEAT LOAD
11 1.0 13 1.0 7 1.0 15 1.0 
LOAD 17 LOADTYPE None  TITLE FLOOD LOADS(FA_N)
REPEAT LOAD
12 1.0 14 1.0 8 1.0 15 1.0 
LOAD 18 LOADTYPE Soil  TITLE SOIL COMPL(HL_COMP)
ELEMENT LOAD
33 TRAP JT 0.23 0.23 0.199333 0.199333
34 TRAP JT 0.23 0.23 0.199333 0.199333
35 TRAP JT 0.23 0.23 0.199333 0.199333
36 TRAP JT 0.23 0.23 0.199333 0.199333
37 TRAP JT 0.23 0.23 0.199333 0.199333
38 TRAP JT 0.23 0.23 0.199333 0.199333
39 TRAP JT 0.23 0.23 0.199333 0.199333
42 TRAP JT 0.23 0.23 0.199333 0.199333
43 TRAP JT 0.23 0.23 0.199333 0.199333
44 TRAP JT 0.23 0.23 0.199333 0.199333
62 TRAP JT 0.199333 0.199333 0.168667 0.168667
63 TRAP JT 0.199333 0.199333 0.168667 0.168667
64 TRAP JT 0.199333 0.199333 0.168667 0.168667
65 TRAP JT 0.199333 0.199333 0.168667 0.168667
66 TRAP JT 0.199333 0.199333 0.168667 0.168667
67 TRAP JT 0.199333 0.199333 0.168667 0.168667
68 TRAP JT 0.199333 0.199333 0.168667 0.168667
69 TRAP JT 0.199333 0.199333 0.168667 0.168667
72 TRAP JT 0.199333 0.199333 0.168667 0.168667
73 TRAP JT 0.199333 0.199333 0.168667 0.168667
# ... 332 like lines cut
32 TO 39 42 TO 44 62 TO 69 72 TO 74 92 TO 99 102 TO 104 122 TO 129 -
132 TO 134 152 TO 159 162 TO 164 211 213 TO 219 222 TO 224 801 TO 816 821 -
822 TO 826 908 TO 915 917 TO 924 926 TO 933 953 TO 960 962 TO 969 971 TO 978 -
980 TO 987 989 TO 996 998 TO 1005 1007 TO 1014 1016 TO 1018 1021 TO 1023 -
1028 1029 1125 2691 TO 2705 2708 TO 2723 2726 TO 2741 2743 TO 2758 -
2778 TO 2785 2796 TO 2803 2814 TO 2821 2832 TO 2839 2850 TO 2857 -
2868 TO 2875 2886 TO 2893 2904 TO 2911 2922 TO 2929 2940 TO 2947 -
2958 TO 2965 2976 TO 2983 2994 TO 3001 3012 TO 3019 PR 0.123
3153 TO 3162 3164 TO 3203 3224 TO 3234 3254 3255 PR GY -1.3
*****************************************************************************
LOAD 19 LOADTYPE Wind  TITLE WIND LOAD (WX+)
JOINT LOAD
265 281 FX 0.9 MZ -1.6
*LOAD 20 LOADTYPE Wind  TITLE WIND LOAD (WX-)
*JOINT LOAD
*265 281 FX -0.9 MZ 1.6
*****************************************************************************
********SERVICE********
LOAD COMB 101 1.0DL
1 1.0 
LOAD COMB 102 1.0DL+1.0LL
1 1.0 2 1.0 
LOAD COMB 105 1.0DL+0.7S
1 1.0 10 0.7 
LOAD COMB 107 1.0DL+0.75LL+0.75(0.7*S)
1 1.0 2 0.75 10 0.525 
LOAD COMB 110 1.0DL+0.6(WX+)
1 1.0 19 0.6 
LOAD COMB 114 1.0DL+0.75FA_N+1.0HL_N+1.0HV_N+0.6(WX+)
1 1.0 17 0.75 5 1.0 6 1.0 19 0.6 
LOAD COMB 120 1.0DL+0.75LL+0.75(0.7*S)+0.75(0.6*WX+)
1 1.0 2 0.75 10 0.525 19 0.45 
*LOAD COMB 140 1.0DL+0.75FA_N+0.6HL_N+0.6HV_N
*1 1.0 17 0.75 5 0.6 6 0.6
LOAD COMB 124 1.0DL+0.75LL+0.75(0.7*S)+1.0HL_N+1.0HV_N+0.75FA_N+0.75(0.6*WX+)
1 1.0 2 0.75 10 0.525 5 1.0 6 1.0 17 0.75 19 0.45 
*LOAD COMB 141 1.0DL+0.75LL+0.75(0.7*S)+0.6HL_N+0.6HV_N+0.75Fa_N
*1 1.0 2 0.75 10 0.525 5 0.6 6 0.6 17 0.75
LOAD COMB 126 0.6DL+0.6HL_U+0.6HV_U+0.6(WX+)
1 0.6 3 0.6 4 0.6 19 0.6 
*LOAD COMB 142 0.6DL+0.6HL_U+0.6HV_U
*1 0.6 3 0.6 4 0.6
*LOAD COMB 143 0.6DL+1.0HL_N+1.0HV_N
*1 0.6 5 1.0 6 1.0
*LOAD COMB 144 0.6DL+0.6HL_N+0.6HV_N
*1 0.6 5 0.6 6 0.6
LOAD COMB 130 0.6DL+0.6HL_N+0.6HV_N+0.75FA_N+0.6(WX+)
1 0.6 5 0.6 6 0.6 17 0.75 19 0.6 
*LOAD COMB 145 0.6DL+0.6HL_N+0.6HV_N+0.75Fa_N
*1 0.6 5 0.6 6 0.6 17 0.75
LOAD COMB 138 1.0DL+1.0HL_U+HV_U+1.0FA_U+0.3(WX+)
1 1.0 3 1.0 4 1.0 16 1.0 19 0.3 
LOAD COMB 140 1.0DL+1.0HL_COMP
1 1.0 18 1.0 
**************************
********STRENGTH********
LOAD COMB 201 1.4DL
1 1.4 
LOAD COMB 203 1.2DL+1.6LL+0.3S+1.6HL_U+1.6HV_U
1 1.2 2 1.6 10 0.3 3 1.6 4 1.6 
LOAD COMB 209 1.2DL+1.0LL+01.0S+1.6HL_U+1.6HV_U
1 1.2 2 1.0 10 1.0 3 1.6 4 1.6 
LOAD COMB 212 1.2DL+1.0S+1.6HL_U+1.6HV_U+0.5(WX+)
1 1.2 10 1.0 3 1.6 4 1.6 19 0.5 
LOAD COMB 218 1.2DL+1.0LL+0.3S+1.6HL_U+1.6HV_U+1.0(WX+)
1 1.2 2 1.0 10 0.3 3 1.6 4 1.6 19 1.0 
LOAD COMB 222 1.2DL+1.0FA_U+1.0LL+0.3S+1.6HL_U+1.6HV_U+0.5(WX+)
1 1.2 16 1.0 1 2.0 10 0.3 3 1.6 4 1.6 19 0.5 
LOAD COMB 224 0.9DL+0.9HL_U+0.9HV_U+1.0(WX+)
1 0.9 3 0.9 4 0.9 19 1.0 
LOAD COMB 228 0.9DL+1.0FA_N+0.9HL_N+0.9HV_N+0.5(WX+)
1 0.9 17 1.0 5 0.9 6 0.9 19 0.5 
LOAD COMB 232 1.2DL+1.6HL_N+1.6HV_N+1.0FA_N+1.0DI+0.5LL+0.15S
1 1.2 5 1.6 6 1.6 17 1.0 9 1.0 2 0.5 10 0.15 
LOAD COMB 233 0.9DL+0.9HL_N+0.9HV_N+1.0FA_N+1.0DI+0.5LL+0.15S
1 0.9 5 0.9 6 0.9 17 1.0 9 1.0 2 0.5 10 0.15 
LOAD COMB 234 1.2DL+1.35HL_N+1.35HV_N+1.0FA_N+1.0LL+1.0(WX+)
1 1.2 5 1.35 6 1.35 17 1.0 2 1.0 19 1.0 
LOAD COMB 236 0.9DL+1.35HL_N+1.35HV_N+1.0FA_N+1.0LL+1.0(WX+)
1 0.9 5 1.35 6 1.35 17 1.0 2 1.0 19 1.0 
LOAD COMB 242 1.2DL+1.35HL_U+1.35HV_U+1.0FA_U+1.0LL+1.0(WX+)
1 1.2 3 1.35 4 1.35 16 1.0 2 1.0 19 1.0 
LOAD COMB 244 0.9DL+1.0HL_U+1.0HV_U+1.0FA_U+1.0LL+1.0(WX+)
1 0.9 3 1.0 4 1.0 16 1.0 2 1.0 19 1.0 
LOAD COMB 246 1.25DL+1.35HL_U+1.35HV_U+1.0FA_U+1.0(WX+)
1 1.25 3 1.35 4 1.35 16 1.0 19 1.0 
LOAD COMB 248 0.9DL+0.9HL_U+0.9HV_U+1.0FA_U+1.0(WX+)
1 0.9 3 0.9 4 0.9 16 1.0 19 1.0 
LOAD COMB 250 2.2DL+2.2HL_U+2.2HV_U+2.2FA_U+2.2LL+2.2(WX+)
1 2.2 3 2.2 4 2.2 16 2.2 2 2.2 19 2.2 
LOAD COMB 252 1.6DL+1.6HL_N+1.6HV_N+1.6FA_N+1.6LL+1.6(WX+)
1 1.6 5 1.6 6 1.6 17 1.6 2 1.6 19 1.6 
LOAD COMB 256 1.6DL+1.6HL_COMP
1 1.6 18 1.6 
*LOAD COMB 250 1.2DL+1.6LL+0.3S+1.6HL_U+1.6HV_U
*1 1.2 2 1.6 10 0.3 3 1.6 4 1.6
*LOAD COMB 251 1.2DL+1.6LL+0.3S+0.9HL_N+0.9HV_N
*1 1.2 2 1.6 10 0.3 5 0.9 6 0.9
*LOAD COMB 252 1.2DL+1.6LL+0.3S+1.6HL_N+1.6HV_N
*1 1.2 2 1.6 10 0.3 5 1.6 6 1.6
*LOAD COMB 253 1.2DL+1.0LL+01.0S+1.6HL_U+1.6HV_U
*1 1.2 2 1.0 10 1.0 3 1.6 4 1.6
*LOAD COMB 254 1.2DL+1.0LL+01.0S+0.9HL_N+0.9HV_N
*1 1.2 2 1.0 10 1.0 5 0.9 6 0.9
*LOAD COMB 255 1.2DL+1.0LL+01.0S+1.6HL_N+1.6HV_N
*1 1.2 2 1.0 10 1.0 5 1.6 6 1.6
*LOAD COMB 256 1.2DL+1.0FA_U+1.0LL+0.3S+1.6HL_U+1.6HV_U
*1 1.2 16 1.0 2 1.0 10 0.3 3 1.6 4 1.6
*LOAD COMB 257 0.9DL+0.9HL_N+0.9HV_N
*1 0.9 5 0.9 6 0.9
*LOAD COMB 258 0.9DL+1.6HL_U+1.6HV_U
*1 0.9 3 1.6 4 1.6
*LOAD COMB 259 0.9DL+0.9HL_N+0.9HV_N
*1 0.9 5 1.6 6 1.6
*LOAD COMB 260 0.9DL+1.0FA_N+1.6HL_N+1.6HV_N
*1 0.9 17 1.0 5 1.6 6 1.6
*LOAD COMB 261 1.2DL+1.6HL_N+1.6HV_N+1.0FA_N+1.0DI+0.5LL+0.15S
*1 1.2 5 1.6 6 1.6 17 1.0 9 1.0 2 0.5 10 0.15
*LOAD COMB 262 0.9DL+1.6HL_N+1.6HV_N+1.0FA_N+1.0DI+0.5LL+0.15S
*1 0.9 5 1.6 6 1.6 17 1.0 9 1.0 2 0.5 10 0.15
*LOAD COMB 263 1.2DL+1.35HL_N+1.35HV_N+1.0FA_N+1.0LL
*1 1.2 5 1.35 6 1.35 17 1.0 2 1.0
*LOAD COMB 264 1.2DL+1.35HL_U+1.35HV_U+1.0FA_U+1.0LL
*1 1.2 3 1.35 4 1.35 16 1.0 2 1.0
*LOAD COMB 265 0.9DL+1.35HL_U+1.35HV_U+1.0FA_U+1.0LL
*1 0.9 3 1.35 4 1.35 16 1.0 2 1.0
*LOAD COMB 266 1.25DL+1.35HL_U+1.3HV_U+1.0FA_U
*1 1.25 3 1.35 4 1.3 16 1.0
*LOAD COMB 267 0.9DL+1.35HL_U+1.3HV_U+1.0FA_U
*1 0.9 3 1.35 4 1.3 16 1.0
PERFORM ANALYSIS PRINT ALL
DEFINE ENVELOPE
101 102 105 107 110 114 120 124 126 130 138 140 ENVELOPE 1 TYPE SERVICEABILITY
201 203 209 212 218 222 224 228 232 TO 234 236 242 244 246 248 250 252 -
256 ENVELOPE 2 TYPE STRENGTH
END DEFINE ENVELOPE
LOAD LIST ENV 2
FINISH
